/*--------------------------------*- C++ -*----------------------------------*\
| =========                 |                                                 |
| \\      /  F ield         | OpenFOAM: The Open Source CFD Toolbox           |
|  \\    /   O peration     | Version:                           	      |
|   \\  /    A nd           | 						      |
|    \\/     M anipulation  |                                                 |
\*---------------------------------------------------------------------------*/
FoamFile
{
    version     2.0;
    format      ascii;
    class       dictionary;
    object      faSolution;
}
// * * * * * * * * * * * * * * * * * * * * * * * * * * * * * * * * * * * * * //

solvers
{
    Us
    {
        solver           PBiCGStab;
        preconditioner   DILU;
        tolerance        1e-10;
        relTol           0.01;
    }

    Cwh
    {
        solver           PBiCGStab;
        preconditioner   DILU;
        tolerance        1e-10;
        relTol           0.01;
    }

    rhoh
    {
        solver           PBiCGStab;
        preconditioner   DILU;
        tolerance        1e-10;
        relTol           0.01;
    }
 
}

nOuterCorrectors 15;
minCorrectors 2;
rhohResidualMax 1e-4;
CwhResidualMax 1e-4;
UsResidualMax 1e-4;

relaxationFactors
{
    Cwh  0.6;
    rhoh 0.6;
    Us   0.6;
}

// ************************************************************************* //
