/*--------------------------------*- C++ -*----------------------------------*\
| =========                 |                                                 |
| \\      /  F ield         | OpenFOAM: The Open Source CFD Toolbox           |
|  \\    /   O peration     | Version:		                              |
|   \\  /    A nd           | 						      |
|    \\/     M anipulation  |                                                 |
\*---------------------------------------------------------------------------*/
FoamFile
{
    version     2.0;
    format      ascii;
    class       dictionary;
    object      faMeshDefinition;
}
// * * * * * * * * * * * * * * * * * * * * * * * * * * * * * * * * * * * * * //

polyMeshPatches  1( terrain );

boundary
{
    minX
    {
        type                patch;
        ownerPolyPatch      terrain;
        neighbourPolyPatch  minX;
    }

    maxX
    {
        type                patch;
        ownerPolyPatch      terrain;
        neighbourPolyPatch  maxX;
    }

    maxY
    {
        type                patch;
        ownerPolyPatch      terrain;
        neighbourPolyPatch  maxY;
    }

    minY1
    {
        type                patch;
        ownerPolyPatch      terrain;
        neighbourPolyPatch  minY1;
    }

    minY2
    {
        type                patch;
        ownerPolyPatch      terrain;
        neighbourPolyPatch  minY2;
    }

}

// ************************************************************************** //
